Simulacoes/57/06 - EE/ieee57_1_0100_EE.txt
================================================================================= 
=== UFF - Doutorado em Computação - Aplicaçoes em Sistemas de Potencia        === 
=== ESTIMADOR DE ESTADO MÍNIMOS QUADRADOS PONDERADOS INCLUINDO MEDIDAS DE PMU === 
=== Desenvolvido por: Rui Menezes de Moraes - 2009                            === 
================================================================================= 
Arquivo de medidores:          F:\Documents\Uff\Artigos\SimSEP\VERSAO WELDAN V2\Codigos\Med\ieee57_1_0100.med
Arquivo do sistema:            F:\Documents\Uff\Artigos\SimSEP\VERSAO WELDAN V2\Codigos\Carga\ieee57_1_0100.txt
Tolerância entre iteraçoes:     1.00e-04
Limite de iteraçoes:           100

--- DADOS DA REDE --------------------------------------------------------------- 
Data do caso:                  08/25/93
Origem:                        UW ARCHIVE          
MVA base:                      100
Ano:                           1961
Estação:                       W
Identificação:                 IEEE 57 Bus Test Case
Número de barras:              57 
Número de ramos:               80 
Referência na barra:           1

--- TELEMEDIDAS ------------------------------------------------------------------
    Tipo 1 = Fluxo de potencia ativa        Tipo  6 = Módulo da tensão            
    Tipo 2 = Injeção de potencia ativa      Tipo  7 = Corrente de ramo (real)     
    Tipo 3 = Ângulo de fase da tensão       Tipo  8 = Corrente de ramo (imag)     
    Tipo 4 = Fluxo de potencia reativa      Tipo  9 = Injeção de corrente (real)  
    Tipo 5 = Injeção de potencia reativa    Tipo 10 = Injeção de corrente (imag)  
----------------------------------------------------------------------------------
   N    D    P TP  PN ST   Exa   FS       DP      V_Ref      V_Med          E(%) 
----------------------------------------------------------------------------------
   1    0    1  6   0  0 0.015 01.1  0.00520   +1.04000   +1.04441     +0.424038 
   2    0    2  6   0  0 0.015 01.1  0.00513   +1.02658   +1.02849     +0.186055 
   3    0    3  6   0  0 0.015 01.1  0.00508   +1.01573   +1.02072     +0.491272 
   4    0    4  6   0  0 0.015 01.1  0.00507   +1.01302   +1.00162     -1.125348 
   5    0    5  6   0  0 0.015 01.1  0.00505   +1.01037   +1.01564     +0.521591 
   6    0    6  6   0  0 0.015 01.1  0.00505   +1.01089   +1.01636     +0.541107 
   7    0    7  6   0  0 0.015 01.1  0.00505   +1.01012   +1.02315     +1.289946 
   8    0    8  6   0  0 0.015 01.1  0.00502   +1.00500   +1.01491     +0.986070 
   9    0    9  6   0  0 0.015 01.1  0.00502   +1.00362   +0.99393     -0.965505 
  10    0   10  6   0  0 0.015 01.1  0.00504   +1.00851   +1.02211     +1.348524 
  11    0   11  6   0  0 0.015 01.1  0.00502   +1.00490   +0.99585     -0.900587 
  12    0   12  6   0  0 0.015 01.1  0.00507   +1.01500   +1.00640     -0.847291 
  13    0   13  6   0  0 0.015 01.1  0.00503   +1.00562   +0.99079     -1.474712 
  14    0   14  6   0  0 0.015 01.1  0.00502   +1.00448   +0.99847     -0.598320 
  15    0   15  6   0  0 0.015 01.1  0.00506   +1.01244   +1.00559     -0.676583 
  16    0   16  6   0  0 0.015 01.1  0.00510   +1.01937   +1.02201     +0.258983 
  17    0   17  6   0  0 0.015 01.1  0.00513   +1.02701   +1.02383     -0.309637 
  18    0   18  6   0  0 0.015 01.1  0.00530   +1.05978   +1.04981     -0.940761 
  19    0   19  6   0  0 0.015 01.1  0.00526   +1.05141   +1.04803     -0.321473 
  20    0   20  6   0  0 0.015 01.1  0.00524   +1.04792   +1.03707     -1.035384 
  21    0   21  6   0  0 0.015 01.1  0.00544   +1.08799   +1.09883     +0.996333 
  22    0   22  6   0  0 0.015 01.1  0.00544   +1.08740   +1.07597     -1.051131 
  23    0   23  6   0  0 0.015 01.1  0.00544   +1.08775   +1.09361     +0.538727 
  24    0   24  6   0  0 0.015 01.1  0.00548   +1.09568   +1.10390     +0.750219 
  25    0   25  6   0  0 0.015 01.1  0.00564   +1.12810   +1.11168     -1.455545 
  26    0   26  6   0  0 0.015 01.1  0.00522   +1.04455   +1.03334     -1.073189 
  27    0   27  6   0  0 0.015 01.1  0.00524   +1.04770   +1.03295     -1.407846 
  28    0   28  6   0  0 0.015 01.1  0.00526   +1.05103   +1.06077     +0.926710 
  29    0   29  6   0  0 0.015 01.1  0.00527   +1.05473   +1.04040     -1.358642 
  30    0   30  6   0  0 0.015 01.1  0.00562   +1.12293   +1.12853     +0.498695 
  31    0   31  6   0  0 0.015 01.1  0.00557   +1.11320   +1.11174     -0.131153 
  32    0   32  6   0  0 0.015 01.1  0.00553   +1.10509   +1.11513     +0.908523 
  33    0   33  6   0  0 0.015 01.1  0.00552   +1.10478   +1.10009     -0.424519 
  34    0   34  6   0  0 0.015 01.1  0.00540   +1.07958   +1.06421     -1.423702 
  35    0   35  6   0  0 0.015 01.1  0.00540   +1.07928   +1.07017     -0.844081 
  36    0   36  6   0  0 0.015 01.1  0.00540   +1.07944   +1.08627     +0.632735 
  37    0   37  6   0  0 0.015 01.1  0.00540   +1.08087   +1.08246     +0.147104 
  38    0   38  6   0  0 0.015 01.1  0.00543   +1.08659   +1.09864     +1.108974 
  39    0   39  6   0  0 0.015 01.1  0.00540   +1.08022   +1.08796     +0.716521 
  40    0   40  6   0  0 0.015 01.1  0.00539   +1.07764   +1.06481     -1.190565 
  41    0   41  6   0  0 0.015 01.1  0.00533   +1.06551   +1.08058     +1.414346 
  42    0   42  6   0  0 0.015 01.1  0.00533   +1.06652   +1.07415     +0.715411 
  43    0   43  6   0  0 0.015 01.1  0.00527   +1.05330   +1.03794     -1.458274 
  44    0   44  6   0  0 0.015 01.1  0.00539   +1.07896   +1.08476     +0.537555 
  45    0   45  6   0  0 0.015 01.1  0.00532   +1.06381   +1.06334     -0.044181 
  46    0   46  6   0  0 0.015 01.1  0.00553   +1.10553   +1.09010     -1.395711 
  47    0   47  6   0  0 0.015 01.1  0.00548   +1.09572   +1.08305     -1.156317 
  48    0   48  6   0  0 0.015 01.1  0.00547   +1.09347   +1.07959     -1.269354 
  49    0   49  6   0  0 0.015 01.1  0.00549   +1.09840   +1.10195     +0.323197 
  50    0   50  6   0  0 0.015 01.1  0.00546   +1.09193   +1.08319     -0.800418 
  51    0   51  6   0  0 0.015 01.1  0.00544   +1.08844   +1.07675     -1.074014 
  52    0   52  6   0  0 0.015 01.1  0.00530   +1.05915   +1.06011     +0.090639 
  53    0   53  6   0  0 0.015 01.1  0.00531   +1.06238   +1.07610     +1.291440 
  54    0   54  6   0  0 0.015 01.1  0.00531   +1.06281   +1.06654     +0.350956 
  55    0   55  6   0  0 0.015 01.1  0.00532   +1.06486   +1.07093     +0.570028 
  56    0   56  6   0  0 0.015 01.1  0.00536   +1.07210   +1.06356     -0.796567 
  57    0   57  6   0  0 0.015 01.1  0.00537   +1.07397   +1.06452     -0.879913 
  58    0    1  2   0  0 0.020 01.0  0.02727   -3.82998   -3.90567     +1.976251 
  59    0    2  2   0  0 0.020 01.0  0.00176   -0.00400   -0.00227    -43.250000 
  60    0    3  2   0  0 0.020 01.0  0.00399   +0.33900   +0.33917     +0.050147 
  61    0    4  2   0  0 0.020 01.0  0.00173   +0.00000   -0.00015     +0.000000 
  62    0    5  2   0  0 0.020 01.0  0.00186   -0.01900   -0.01496    -21.263158 
  63    0    6  2   0  0 0.020 01.0  0.00249   -0.11300   -0.10606     -6.141593 
  64    0    7  2   0  0 0.020 01.0  0.00173   +0.00000   +0.00270     +0.000000 
  65    0    8  2   0  0 0.020 01.0  0.03023   +4.27500   +4.22905     -1.074854 
  66    0    9  2   0  0 0.020 01.0  0.00294   -0.18100   -0.17789     -1.718232 
  67    0   10  2   0  0 0.020 01.0  0.00249   -0.11300   -0.10913     -3.424779 
  68    0   11  2   0  0 0.020 01.0  0.00173   +0.00000   +0.00090     +0.000000 
  69    0   12  2   0  0 0.020 01.0  0.00657   +0.72600   +0.73872     +1.752066 
  70    0   13  2   0  0 0.020 01.0  0.00191   -0.02700   -0.02210    -18.148148 
  71    0   14  2   0  0 0.020 01.0  0.00184   -0.01600   -0.01448     -9.500000 
  72    0   15  2   0  0 0.020 01.0  0.00195   -0.03299   -0.03863    +17.096090 
  73    0   16  2   0  0 0.020 01.0  0.00217   -0.06500   -0.06910     +6.307692 
  74    0   17  2   0  0 0.020 01.0  0.00215   -0.06300   -0.06911     +9.698413 
  75    0   18  2   0  0 0.020 01.0  0.00201   -0.04100   -0.03576    -12.780488 
  76    0   19  2   0  0 0.020 01.0  0.00177   -0.00500   -0.00516     +3.200000 
  77    0   20  2   0  0 0.020 01.0  0.00175   -0.00300   +0.00010   -103.333333 
  78    0   21  2   0  0 0.020 01.0  0.00173   -0.00000   -0.00045     +0.000000 
  79    0   22  2   0  0 0.020 01.0  0.00173   +0.00000   -0.00006     +0.000000 
  80    0   23  2   0  0 0.020 01.0  0.00179   -0.00900   -0.00980     +8.888889 
  81    0   24  2   0  0 0.020 01.0  0.00173   +0.00000   +0.00407     +0.000000 
  82    0   25  2   0  0 0.020 01.0  0.00179   -0.00900   -0.00497    -44.777778 
  83    0   26  2   0  0 0.020 01.0  0.00173   -0.00000   +0.00138     +0.000000 
  84    0   27  2   0  0 0.020 01.0  0.00183   -0.01400   -0.01628    +16.285714 
  85    0   28  2   0  0 0.020 01.0  0.00178   -0.00700   -0.00922    +31.714286 
  86    0   29  2   0  0 0.020 01.0  0.00190   -0.02500   -0.02790    +11.600000 
  87    0   30  2   0  0 0.020 01.0  0.00177   -0.00500   -0.00283    -43.400000 
  88    0   31  2   0  0 0.020 01.0  0.00179   -0.00900   -0.00605    -32.777778 
  89    0   32  2   0  0 0.020 01.0  0.00175   -0.00200   +0.00138   -169.000000 
  90    0   33  2   0  0 0.020 01.0  0.00177   -0.00600   -0.00274    -54.333333 
  91    0   34  2   0  0 0.020 01.0  0.00173   +0.00000   -0.00256     +0.000000 
  92    0   35  2   0  0 0.020 01.0  0.00179   -0.00900   -0.00577    -35.888889 
  93    0   36  2   0  0 0.020 01.0  0.00173   -0.00000   +0.00135     +0.000000 
  94    0   37  2   0  0 0.020 01.0  0.00173   +0.00000   -0.00279     +0.000000 
  95    0   38  2   0  0 0.020 01.0  0.00187   -0.02100   -0.02234     +6.380952 
  96    0   39  2   0  0 0.020 01.0  0.00173   -0.00000   -0.00049     +0.000000 
  97    0   40  2   0  0 0.020 01.0  0.00173   -0.00000   +0.00001     +0.000000 
  98    0   41  2   0  0 0.020 01.0  0.00179   -0.00900   -0.00856     -4.888889 
  99    0   42  2   0  0 0.020 01.0  0.00181   -0.01100   -0.01268    +15.272727 
 100    0   43  2   0  0 0.020 01.0  0.00175   -0.00300   -0.00519    +73.000000 
 101    0   44  2   0  0 0.020 01.0  0.00185   -0.01800   -0.01574    -12.555556 
 102    0   45  2   0  0 0.020 01.0  0.00173   -0.00000   +0.00451     +0.000000 
 103    0   46  2   0  0 0.020 01.0  0.00173   +0.00000   +0.00098     +0.000000 
 104    0   47  2   0  0 0.020 01.0  0.00203   -0.04500   -0.04386     -2.533333 
 105    0   48  2   0  0 0.020 01.0  0.00173   +0.00000   +0.00248     +0.000000 
 106    0   49  2   0  0 0.020 01.0  0.00191   -0.02700   -0.02846     +5.407407 
 107    0   50  2   0  0 0.020 01.0  0.00194   -0.03100   -0.03154     +1.741935 
 108    0   51  2   0  0 0.020 01.0  0.00191   -0.02700   -0.02689     -0.407407 
 109    0   52  2   0  0 0.020 01.0  0.00178   -0.00700   -0.00242    -65.428571 
 110    0   53  2   0  0 0.020 01.0  0.00193   -0.03000   -0.03057     +1.900000 
 111    0   54  2   0  0 0.020 01.0  0.00177   -0.00600   -0.00454    -24.333333 
 112    0   55  2   0  0 0.020 01.0  0.00180   -0.01000   -0.01044     +4.400000 
 113    0   56  2   0  0 0.020 01.0  0.00181   -0.01100   -0.01042     -5.272727 
 114    0   57  2   0  0 0.020 01.0  0.00180   -0.01000   -0.01495    +49.500000 
 115    0    1  5   0  0 0.020 01.0  0.01490   +1.97440   +2.00141     +1.368011 
 116    0    2  5   0  0 0.020 01.0  0.00375   -0.30200   -0.29814     -1.278146 
 117    0    3  5   0  0 0.020 01.0  0.00261   -0.13099   -0.13567     +3.572792 
 118    0    4  5   0  0 0.020 01.0  0.00173   -0.00000   -0.00505     +0.000000 
 119    0    5  5   0  0 0.020 01.0  0.00177   -0.00600   -0.00320    -46.666667 
 120    0    6  5   0  0 0.020 01.0  0.00229   -0.08299   -0.08206     -1.120617 
 121    0    7  5   0  0 0.020 01.0  0.00173   -0.00000   +0.00160     +0.000000 
 122    0    8  5   0  0 0.020 01.0  0.00652   -0.71766   -0.71239     -0.734331 
 123    0    9  5   0  0 0.020 01.0  0.00219   -0.06899   -0.06590     -4.478910 
 124    0   10  5   0  0 0.020 01.0  0.00203   -0.04500   -0.04027    -10.511111 
 125    0   11  5   0  0 0.020 01.0  0.00173   -0.00000   +0.00173     +0.000000 
 126    0   12  5   0  0 0.020 01.0  0.00207   -0.05093   -0.05565     +9.267622 
 127    0   13  5   0  0 0.020 01.0  0.00175   -0.00300   -0.00075    -75.000000 
 128    0   14  5   0  0 0.020 01.0  0.00179   -0.00800   -0.00857     +7.125000 
 129    0   15  5   0  0 0.020 01.0  0.00179   -0.00800   -0.00649    -18.875000 
 130    0   16  5   0  0 0.020 01.0  0.00176   -0.00400   -0.00243    -39.250000 
 131    0   17  5   0  0 0.020 01.0  0.00181   -0.01200   -0.01006    -16.166667 
 132    0   18  5   0  0 0.020 01.0  0.00183   -0.01500   -0.01985    +32.333333 
 133    0   19  5   0  0 0.020 01.0  0.00174   -0.00100   -0.00388   +288.000000 
 134    0   20  5   0  0 0.020 01.0  0.00174   -0.00100   -0.00447   +347.000000 
 135    0   21  5   0  0 0.020 01.0  0.00173   +0.00000   +0.00446     +0.000000 
 136    0   22  5   0  0 0.020 01.0  0.00173   +0.00000   +0.00016     +0.000000 
 137    0   23  5   0  0 0.020 01.0  0.00175   -0.00300   -0.00118    -60.666667 
 138    0   24  5   0  0 0.020 01.0  0.00173   +0.00000   +0.00175     +0.000000 
 139    0   25  5   0  0 0.020 01.0  0.00177   -0.00500   -0.00944    +88.800000 
 140    0   26  5   0  0 0.020 01.0  0.00173   -0.00000   -0.00286     +0.000000 
 141    0   27  5   0  0 0.020 01.0  0.00174   -0.00100   -0.00325   +225.000000 
 142    0   28  5   0  0 0.020 01.0  0.00175   -0.00300   +0.00135   -145.000000 
 143    0   29  5   0  0 0.020 01.0  0.00176   -0.00400   -0.00686    +71.500000 
 144    0   30  5   0  0 0.020 01.0  0.00175   -0.00300   -0.00564    +88.000000 
 145    0   31  5   0  0 0.020 01.0  0.00176   -0.00400   -0.00214    -46.500000 
 146    0   32  5   0  0 0.020 01.0  0.00174   -0.00100   +0.00055   -155.000000 
 147    0   33  5   0  0 0.020 01.0  0.00175   -0.00300   -0.00086    -71.333333 
 148    0   34  5   0  0 0.020 01.0  0.00173   +0.00000   +0.00351     +0.000000 
 149    0   35  5   0  0 0.020 01.0  0.00176   -0.00400   -0.00160    -60.000000 
 150    0   36  5   0  0 0.020 01.0  0.00173   +0.00000   -0.00500     +0.000000 
 151    0   37  5   0  0 0.020 01.0  0.00173   -0.00000   +0.00087     +0.000000 
 152    0   38  5   0  0 0.020 01.0  0.00181   -0.01100   -0.00644    -41.454545 
 153    0   39  5   0  0 0.020 01.0  0.00173   +0.00000   -0.00425     +0.000000 
 154    0   40  5   0  0 0.020 01.0  0.00173   +0.00000   +0.00057     +0.000000 
 155    0   41  5   0  0 0.020 01.0  0.00176   -0.00400   +0.00055   -113.750000 
 156    0   42  5   0  0 0.020 01.0  0.00178   -0.00700   -0.01021    +45.857143 
 157    0   43  5   0  0 0.020 01.0  0.00174   -0.00100   -0.00074    -26.000000 
 158    0   44  5   0  0 0.020 01.0  0.00175   -0.00300   -0.00693   +131.000000 
 159    0   45  5   0  0 0.020 01.0  0.00173   +0.00000   +0.00259     +0.000000 
 160    0   46  5   0  0 0.020 01.0  0.00173   -0.00000   -0.00193     +0.000000 
 161    0   47  5   0  0 0.020 01.0  0.00185   -0.01700   -0.02047    +20.411765 
 162    0   48  5   0  0 0.020 01.0  0.00173   +0.00000   +0.00500     +0.000000 
 163    0   49  5   0  0 0.020 01.0  0.00182   -0.01300   -0.01068    -17.846154 
 164    0   50  5   0  0 0.020 01.0  0.00184   -0.01600   -0.01240    -22.500000 
 165    0   51  5   0  0 0.020 01.0  0.00179   -0.00800   -0.00604    -24.500000 
 166    0   52  5   0  0 0.020 01.0  0.00175   -0.00300   -0.00101    -66.333333 
 167    0   53  5   0  0 0.020 01.0  0.00183   -0.01500   -0.01466     -2.266667 
 168    0   54  5   0  0 0.020 01.0  0.00175   -0.00200   -0.00526   +163.000000 
 169    0   55  5   0  0 0.020 01.0  0.00177   -0.00500   -0.00507     +1.400000 
 170    0   56  5   0  0 0.020 01.0  0.00175   -0.00300   -0.00237    -21.000000 
 171    0   57  5   0  0 0.020 01.0  0.00175   -0.00300   +0.00045   -115.000000 
 172    1    2  1   0  0 0.020 01.0  0.00942   -1.15302   -1.16981     +1.456176 
 173    2    3  1   0  0 0.020 01.0  0.00955   -1.17297   -1.17138     -0.135553 
 174    3    4  1   0  0 0.020 01.0  0.00917   -1.11521   -1.09828     -1.518100 
 175    4    5  1   0  0 0.020 01.0  0.00483   -0.46476   -0.46896     +0.903692 
 176    4    6  1   0  0 0.020 01.0  0.00649   -0.71361   -0.71175     -0.260647 
 177    6    7  1   0  0 0.020 01.0  0.00584   -0.61584   -0.60822     -1.237334 
 178    6    8  1   0  0 0.020 01.0  0.00670   -0.74536   -0.75732     +1.604594 
 179    8    9  1   0  0 0.020 01.0  0.01871   +2.54662   +2.56276     +0.633781 
 180    9   10  1   0  0 0.020 01.0  0.00504   +0.49636   +0.48124     -3.046176 
 181    9   11  1   0  0 0.020 01.0  0.00654   +0.72171   +0.72223     +0.072051 
 182    9   12  1   0  0 0.020 01.0  0.00438   +0.39701   +0.39885     +0.463464 
 183    9   13  1   0  0 0.020 01.0  0.00633   +0.68947   +0.67075     -2.715129 
 184   13   14  1   0  0 0.020 01.0  0.00537   +0.54583   +0.55848     +2.317571 
 185   13   15  1   0  0 0.020 01.0  0.00581   +0.61096   +0.62257     +1.900288 
 186    1   15  1   0  0 0.020 01.0  0.01146   -1.45916   -1.44023     -1.297322 
 187    1   16  1   0  0 0.020 01.0  0.00586   -0.61933   -0.60920     -1.635639 
 188    1   17  1   0  0 0.020 01.0  0.00572   -0.59848   -0.60282     +0.725170 
 189    3   15  1   0  0 0.020 01.0  0.00328   +0.23141   +0.22458     -2.951471 
 190    4   18  1   0  0 0.020 01.0  0.00187   +0.02084   +0.01918     -7.965451 
 191    4   18  1   0  0 0.020 01.0  0.00191   +0.02668   +0.02834     +6.221889 
 192    5    6  1   0  0 0.020 01.0  0.00507   -0.50112   -0.48797     -2.624122 
 193    7    8  1   0  0 0.020 01.0  0.00806   -0.94932   -0.96899     +2.072009 
 194   10   12  1   0  0 0.020 01.0  0.00347   +0.26093   +0.26590     +1.904725 
 195   11   13  1   0  0 0.020 01.0  0.00601   +0.64197   +0.62593     -2.498559 
 196   12   13  1   0  0 0.020 01.0  0.00195   -0.03303   -0.03001     -9.143203 
 197   12   16  1   0  0 0.020 01.0  0.00649   +0.71339   +0.71197     -0.199050 
 198   12   17  1   0  0 0.020 01.0  0.00634   +0.69064   +0.67334     -2.504923 
 199   14   15  1   0  0 0.020 01.0  0.00526   +0.52943   +0.54023     +2.039930 
...
Número de medidores SCADA:     491
Número de PMUs:                0
Número de medidas das PMUs:    0
----------------------------------------------------------------------------------

Não há medidas de ângulo.
Não há medidores desabilitados.
============================== Estado Estimado ===================================
                 Barra     Mod(pu)    Ang(graus)              
----------------------------------------------------------------------------------
                    1            1.0388              0.00        
                    2            1.0253              2.14        
                    3            1.0139              8.69        
                    4            1.0111             11.26        
                    5            1.0089             15.64        
                    6            1.0094             17.84        
                    7            1.0086             21.52        
                    8            1.0033             25.57        
                    9            1.0021             18.09        
                   10            1.0073             13.16        
                   11            1.0033             14.29        
                   12            1.0134             11.12        
                   13            1.0040             11.39        
                   14            1.0028              9.94        
                   15            1.0107              8.00        
                   16            1.0179              7.68        
                   17            1.0257              3.86        
                   18            1.0545             10.71        
                   19            1.0462             10.68        
                   20            1.0433             10.78        
                   21            1.0862             10.79        
                   22            1.0855             10.81        
                   23            1.0858             10.96        
                   24            1.0937             13.58        
                   25            1.1250             12.43        
                   26            1.0427             14.08        
                   27            1.0461             17.93        
                   28            1.0495             19.43        
                   29            1.0531             20.41        
                   30            1.1198             12.21        
                   31            1.1111             11.78        
                   32            1.1036             11.44        
                   33            1.1033             11.44        
                   34            1.0778             10.98        
                   35            1.0773             10.95        
                   36            1.0774             10.96        
                   37            1.0788             10.86        
                   38            1.0848             10.53        
                   39            1.0781             10.89        
                   40            1.0756             11.05        
                   41            1.0645             13.26        
                   42            1.0656             12.45        
                   43            1.0515             13.99        
                   44            1.0772             10.01        
                   45            1.0621              8.99        
                   46            1.1037              9.96        
                   47            1.0939             10.15        
                   48            1.0918             10.33        
                   49            1.0966             10.68        
                   50            1.0902             11.36        
                   51            1.0872             12.76        
                   52            1.0577             19.35        
                   53            1.0608             18.81        
                   54            1.0608             18.42        
                   55            1.0630             18.09        
                   56            1.0711             11.76        
                   57            1.0730             11.35        
----------------------------------------------------------------------------------
Convergiu em:    3 iteraçoes. 
----------------------------------------------------------------------------------
--- RESIDUOS NORMALIZADOS --------------------------------------------------------
   N    D    P  TP      Real     Medido   Estimado      Med-Est        rn 
----------------------------------------------------------------------------------
 430   18    4  4    +0.0295    +0.0252    +0.0510  -2.5837e-02      0.626 
 270    4   18  4    -0.0289    -0.0306    -0.0498  +1.9149e-02      0.462 
  58    0    1  2    -3.8300    -3.9057    -3.8474  -5.8274e-02      0.399 
 118    0    4  5    -0.0000    -0.0050    +0.0027  -7.7775e-03      0.348 
 198   12   17  1    +0.6906    +0.6733    +0.6952  -2.1822e-02      0.283 
 132    0   18  5    -0.0150    -0.0198    -0.0283  +8.4827e-03      0.273 
 346   15    1  1    +1.5025    +1.5366    +1.5088  +2.7763e-02      0.267 
 334    4    3  1    +1.1309    +1.1582    +1.1347  +2.3445e-02      0.264 
 193    7    8  1    -0.9493    -0.9690    -0.9476  -2.1377e-02      0.254 
 341   11    9  1    -0.7073    -0.7255    -0.7066  -1.8915e-02      0.246 
 431   18    4  4    +0.0592    +0.0615    +0.0510  +1.0473e-02      0.240 
 186    1   15  1    -1.4592    -1.4402    -1.4649  +2.4633e-02      0.239 
 174    3    4  1    -1.1152    -1.0983    -1.1189  +2.0610e-02      0.233 
 332    2    1  1    +1.1690    +1.1540    +1.1749  -2.0971e-02      0.231 
  41    0   41  6    +1.0655    +1.0806    +1.0645  +1.6058e-02      0.223 
 183    9   13  1    +0.6895    +0.6707    +0.6882  -1.7401e-02      0.222 
 179    8    9  1    +2.5466    +2.5628    +2.5349  +2.7843e-02      0.219 
  53    0   53  6    +1.0624    +1.0761    +1.0608  +1.5333e-02      0.213 
 415    5    4  4    -0.2394    -0.2477    -0.2360  -1.1780e-02      0.212 
  10    0   10  6    +1.0085    +1.0221    +1.0073  +1.4778e-02      0.210 
  67    0   10  2    -0.1130    -0.1091    -0.1026  -6.5428e-03      0.209 
 347   16    1  1    +0.6389    +0.6266    +0.6422  -1.5607e-02      0.208 
   7    0    7  6    +1.0101    +1.0232    +1.0086  +1.4555e-02      0.207 
 333    3    2  1    +1.2228    +1.2062    +1.2256  -1.9435e-02      0.204 
 342   12    9  1    -0.3862    -0.3978    -0.3848  -1.2996e-02      0.200 
 252    1    2  4    +0.7964    +0.7874    +0.8022  -1.4809e-02      0.198 
  82    0   25  2    -0.0090    -0.0050    -0.0108  +5.8753e-03      0.197 
 412    2    1  4    -0.8803    -0.9005    -0.8851  -1.5469e-02      0.195 
 301   37   38  4    -0.0740    -0.0684    -0.0760  +7.6039e-03      0.192 
 178    6    8  1    -0.7454    -0.7573    -0.7420  -1.5353e-02      0.192 
 195   11   13  1    +0.6420    +0.6259    +0.6399  -1.4004e-02      0.191 
  74    0   17  2    -0.0630    -0.0691    -0.0642  -4.9469e-03      0.190 
  38    0   38  6    +1.0866    +1.0986    +1.0848  +1.3860e-02      0.190 
  65    0    8  2    +4.2750    +4.2290    +4.2581  -2.9049e-02      0.189 
  43    0   43  6    +1.0533    +1.0379    +1.0515  -1.3569e-02      0.189 
  13    0   13  6    +1.0056    +0.9908    +1.0040  -1.3214e-02      0.188 
 254    3    4  4    +0.4247    +0.4192    +0.4304  -1.1257e-02      0.186 
  34    0   34  6    +1.0796    +1.0642    +1.0778  -1.3543e-02      0.186 
 212    7   29  1    +0.3256    +0.3190    +0.3292  -1.0195e-02      0.185 
  46    0   46  6    +1.1055    +1.0901    +1.1037  -1.3604e-02      0.185 
  27    0   27  6    +1.0477    +1.0330    +1.0461  -1.3107e-02      0.183 
 129    0   15  5    -0.0080    -0.0065    -0.0103  +3.8068e-03      0.183 
  25    0   25  6    +1.1281    +1.1117    +1.1250  -1.3279e-02      0.181 
 429   15    3  4    -0.0190    -0.0238    -0.0171  -6.6865e-03      0.178 
  29    0   29  6    +1.0547    +1.0404    +1.0531  -1.2746e-02      0.177 
 187    1   16  1    -0.6193    -0.6092    -0.6224  +1.3181e-02      0.177 
 359   15   14  1    -0.5231    -0.5151    -0.5271  +1.2086e-02      0.175 
  21    0   21  6    +1.0880    +1.0988    +1.0862  +1.2664e-02      0.173 
 311   46   47  4    +0.1588    +0.1671    +0.1588  +8.2886e-03      0.173 
 335    5    4  1    +0.4821    +0.4955    +0.4841  +1.1388e-02      0.168 
 459   36   35  4    +0.0010    +0.0057    -0.0001  +5.8441e-03      0.168 
  48    0   48  6    +1.0935    +1.0796    +1.0918  -1.2166e-02      0.166 
 463   40   36  4    -0.0498    -0.0552    -0.0487  -6.4823e-03      0.165 
   8    0    8  6    +1.0050    +1.0149    +1.0033  +1.1597e-02      0.165 
 344   14   13  1    -0.5417    -0.5321    -0.5434  +1.1317e-02      0.163 
 282   21   20  4    -0.0064    -0.0088    -0.0026  -6.2676e-03      0.163 
 261    9   11  4    -0.2197    -0.2275    -0.2189  -8.5795e-03      0.162 
 292    7   29  4    -0.1604    -0.1525    -0.1599  +7.3661e-03      0.160 
  32    0   32  6    +1.1051    +1.1151    +1.1036  +1.1517e-02      0.160 
 362   20   21  1    -0.0015    -0.0062    -0.0002  -5.9650e-03      0.157 
 184   13   14  1    +0.5458    +0.5585    +0.5476  +1.0912e-02      0.157 
  28    0   28  6    +1.0510    +1.0608    +1.0495  +1.1239e-02      0.156 
 164    0   50  5    -0.0160    -0.0124    -0.0172  +4.8125e-03      0.155 
  87    0   30  2    -0.0050    -0.0028    -0.0077  +4.8497e-03      0.154 
 285   23   24  4    +0.0718    +0.0655    +0.0720  -6.5129e-03      0.152 
 479   53   52  4    +0.0738    +0.0793    +0.0729  +6.3839e-03      0.152 
 449   27   26  4    -0.1169    -0.1222    -0.1151  -7.1031e-03      0.151 
 302   37   39  4    +0.0231    +0.0176    +0.0232  -5.6101e-03      0.151 
 413    3    2  4    -0.5215    -0.5172    -0.5276  +1.0315e-02      0.151 
 192    5    6  1    -0.5011    -0.4880    -0.4981  +1.0118e-02      0.151 
 357   16   12  1    -0.7039    -0.6979    -0.7092  +1.1274e-02      0.150 
 268    1   17  4    +0.2635    +0.2576    +0.2657  -8.0609e-03      0.148 
  47    0   47  6    +1.0957    +1.0831    +1.0939  -1.0866e-02      0.148 
  40    0   40  6    +1.0776    +1.0648    +1.0756  -1.0761e-02      0.148 
 242   11   43  1    +0.0381    +0.0323    +0.0380  -5.6644e-03      0.147 
 474   50   49  4    -0.0881    -0.0948    -0.0884  -6.4075e-03      0.146 
 238   29   52  1    +0.0582    +0.0629    +0.0570  +5.9302e-03      0.145 
 339    9    8  1    -2.4822    -2.4527    -2.4708  +1.8098e-02      0.143 
  51    0   51  6    +1.0884    +1.0768    +1.0872  -1.0471e-02      0.143 
 122    0    8  5    -0.7177    -0.7124    -0.7216  +9.2391e-03      0.143 
 180    9   10  1    +0.4964    +0.4812    +0.4909  -9.6438e-03      0.141 
 470   46   14  4    -0.1588    -0.1509    -0.1577  +6.7340e-03      0.140 
  24    0   24  6    +1.0957    +1.1039    +1.0937  +1.0236e-02      0.140 
 259    8    9  4    -0.3288    -0.3381    -0.3306  -7.5178e-03      0.139 
 329   38   49  4    -0.0446    -0.0386    -0.0445  +5.9211e-03      0.136 
  39    0   39  6    +1.0802    +1.0880    +1.0781  +9.8340e-03      0.135 
 210   27   28  1    -0.2291    -0.2202    -0.2273  +7.0205e-03      0.135 
 414    4    3  4    -0.4127    -0.4095    -0.4176  +8.0837e-03      0.134 
 277   12   16  4    -0.2012    -0.2102    -0.2034  -6.8106e-03      0.134 
 421   11    9  4    +0.2452    +0.2373    +0.2446  -7.2572e-03      0.134 
  88    0   31  2    -0.0090    -0.0060    -0.0103  +4.2819e-03      0.134 
   4    0    4  6    +1.0130    +1.0016    +1.0111  -9.4379e-03      0.134 
 445   24   23  4    -0.0748    -0.0807    -0.0749  -5.7238e-03      0.132 
...